[Format]      =  1
[Precision]   =  1e-008
[MinAngle]    =  20
[DoSmartMesh] =  1
[Depth]       =  0.0030000000000000001
[LengthUnits] =  meters
[ProblemType] =  planar
[Coordinates] =  cartesian
[PrevSoln] = ""
[dT] = 0
[Comment]     =  "Add comments here."
[PointProps]   = 0
[BdryProps]   = 2
  <BeginBdry>
    <BdryName> = "convectionToAmbient"
    <BdryType> = 2
    <Tset> = 0
    <qs>   = 0
    <beta> = 0
    <h>    = 7
    <Tinf> = 40
  <EndBdry>
  <BeginBdry>
    <BdryName> = "prescribedFixingTemperature"
    <BdryType> = 0
    <Tset> = 40
    <qs>   = 0
    <beta> = 0
    <h>    = 0
    <Tinf> = 0
  <EndBdry>
[BlockProps]  = 6
  <BeginBlock>
    <BlockName> = "Al"
    <Kx> = 226
    <Ky> = 226
    <Kt> = 0
    <qv> = 0
  <EndBlock>
  <BeginBlock>
    <BlockName> = "Air"
    <Kx> = 0.025999999999999999
    <Ky> = 0.025999999999999999
    <Kt> = 0
    <qv> = 0
  <EndBlock>
  <BeginBlock>
    <BlockName> = "Sylgard"
    <Kx> = 0.39000000000000001
    <Ky> = 0.39000000000000001
    <Kt> = 0
    <qv> = 0
  <EndBlock>
  <BeginBlock>
    <BlockName> = "Copper"
    <Kx> = 413
    <Ky> = 413
    <Kt> = 0
    <qv> = 0
  <EndBlock>
  <BeginBlock>
    <BlockName> = "ThermalPaste"
    <Kx> = 12.800000000000001
    <Ky> = 12.800000000000001
    <Kt> = 0
    <qv> = 0
  <EndBlock>
  <BeginBlock>
    <BlockName> = "Heater"
    <Kx> = 5
    <Ky> = 5
    <Kt> = 0
    <qv> = 10000000.000000009
  <EndBlock>
[ConductorProps]  = 0
[NumPoints] = 12
0.0050000000000000001	0	0	0	0
0.044999999999999998	0	0	0	0
0.050000000000000003	0.0050000000000000001	0	0	0
0.050000000000000003	0.025000000000000001	0	0	0
0.044999999999999998	0.029999999999999999	0	0	0
0.0050000000000000001	0.029999999999999999	0	0	0
0	0.025000000000000001	0	0	0
0	0.0050000000000000001	0	0	0
0.029999999999999999	0.02	0	0	0
0.035000000000000003	0.02	0	0	0
0.035000000000000003	0.025000000000000001	0	0	0
0.029999999999999999	0.025000000000000001	0	0	0
[NumSegments] = 10
0	1	-1	2	0	0	0
2	3	-1	1	0	0	0
3	4	-1	1	0	0	0
4	5	-1	1	0	0	0
5	6	-1	1	0	0	0
6	7	-1	1	0	0	0
8	9	-1	0	0	0	0
9	10	-1	0	0	0	0
10	11	-1	0	0	0	0
11	8	-1	0	0	0	0
[NumArcSegments] = 2
1	2	90	10	1	0	0	0	1
7	0	90	10	1	0	0	0	1
[NumHoles] = 0
[NumBlockLabels] = 2
0.032500000000000001	0.022499999999999999	6	0.00050000000000000001	0	0
0.024999999999999998	0.014999999999999999	4	0.00050000000000000001	0	0
[Solution]
6064
0.050000000000000003	0.025000000000000001	40.306915168541543	-2
0.049978201010126781	0.025021798989873226	40.306950739853782	-2
0.050000000000000003	0.024969171572875256	40.306880047522931	-2
0.0499627867965644	0.024984585786437627	40.306914731380708	-2
0.049900757228560313	0.025099242771439691	40.307180498488755	-2
0.049908025773458035	0.025029067534770948	40.307051744594673	-2
0.050000000000000003	0.024813403267049082	40.306528616604758	-2
0.049945940337696247	0.024891287419962167	40.306725807940659	-2
0.049823313446993853	0.025176686553006151	40.307476983351037	-2
0.049774803482303689	0.025050732806749524	40.307269116876917	-2
0.050000000000000003	0.024657634961222905	40.306072870620952	-2
0.049804657761320349	0.024735519114135993	40.306410532592267	-2
0.049668425883860931	0.025331574116139073	40.308213509968702	-2
0.049379210863217983	0.024639269320913201	40.306558870133664	-2
0.049065934593263201	0.024942793726000462	40.308297936729019	-2
0.050000000000000003	0.02434609834957055	40.304930220863	-2
0.049358650757595088	0.02564134924240492	40.309899180335087	-2
0.049673285064632304	0.024034561737918198	40.303760505416783	-2
0.049261370913983235	0.024219289759309651	40.3049786626759	-2
0.048826543834739528	0.024154540813150986	40.305364770402797	-2
0.048504608209568187	0.024948801882761502	40.30965385593715	-2
0.048790867871619445	0.025468661388982815	40.31093026774343	-2
0.048455062770380593	0.024389634057832798	40.307242882856421	-2
0.050000000000000003	0.023723025126265847	40.302200576452215	-2
0.049048875631329238	0.025951124368670767	40.311839661215416	-2
0.049481822220078735	0.02350668597812396	40.301264671988513	-2
0.048954157754917106	0.02373384888043872	40.303010395217441	-2
0.048324707697132464	0.023772611016667718	40.304351136056219	-2
0.048114612236837009	0.025164592206117622	40.311714815323604	-2
0.047986819535019085	0.024731964857582504	40.310095541627547	-2
0.048404214356945731	0.025841206589649564	40.313586745879128	-2
0.048115509013691139	0.024139088496182088	40.306794585821351	-2
0.050000000000000003	0.023099951902961144	40.298802994436834	-2
0.048739100505063387	0.026260899494936613	40.313992779691979	-2
0.049494714589593237	0.022788415291308792	40.297091794213557	-2
0.049036043553548188	0.023165229950077689	40.299744949607394	-2
0.04859371798113224	0.023367431166453751	40.301561687664645	-2
0.048108623252148909	0.023402364643658899	40.302711953635146	-2
0.047768513593987538	0.023663324955805004	40.305062202194073	-2
0.04766980277291006	0.025136186868561176	40.312994694766324	-2
0.047938480568641771	0.025574030794747758	40.31405674223695	-2
0.047702638975459351	0.024226313284374825	40.308368762025964	-2
0.04740801464997034	0.024694189085415794	40.311700272672851	-2
0.048265395920269807	0.026295428718780895	40.315869172275846	-2
0.047792203734413501	0.026254471958676119	40.317444238368097	-2
0.050000000000000003	0.022476878679656441	40.294963684415599	-2
0.048119550252531694	0.026880449747468307	40.318694289109352	-2
0.049092843821167263	0.022766807112497799	40.29727601061078	-2
0.049603405117751423	0.022399169018089176	40.294522786394602	-2
0.048649681274329948	0.022906235512304245	40.298692690449883	-2
0.048191275681941821	0.022981718188854673	40.299960007484884	-2
0.047400202756505389	0.023114078282558886	40.30268787366483	-2
0.047207863916323978	0.023746795084640511	40.307142399783082	-2
0.047293726694065633	0.024153218179077285	40.309205657719573	-2
0.047457359304155886	0.025567907768192396	40.315722776717308	-2
0.047011615154932559	0.025138794619688348	40.315329697695525	-2
0.047461808822914911	0.025990673326772244	40.317569444864496	-2
0.046949321792676676	0.024385462473285643	40.311665434808383	-2
0.0476786291638331	0.026712443811434727	40.319754204430794	-2
0.047212449630151983	0.026639546326028649	40.321294473647917	-2
0.050000000000000003	0.021853805456351738	40.290696146033021	-2
0.047500000000000001	0.0275	40.323647110142069	-2
0.047423967343991083	0.027068718754473583	40.322213336688712	-2
0.048837372229013534	0.022455838796572768	40.295516898037675	-2
0.0495577149386816	0.021949056531742592	40.291459442775128	-2
0.049007703507521372	0.022071600334564585	40.292718855302027	-2
0.048361620520250281	0.022521887803052386	40.296656157898163	-2
0.047739706929698998	0.022713011594630596	40.299213944470516	-2
0.047040118628420106	0.023350209560382029	40.305245582820042	-2
0.047103871582248151	0.022797539198639177	40.30144716904887	-2
0.046600006242914015	0.02407121627984125	40.311152449590892	-2
0.04701483428675364	0.025756817195082205	40.318242169192381	-2
0.046257003331705134	0.025103239775456108	40.318144279860476	-2
0.046415951107609647	0.025604169875274349	40.319952098266313	-2
0.046462346766122188	0.024619473887540565	40.314761540768913	-2
0.04709791300241517	0.02620591818167322	40.319909565911431	-2
0.046718141415637453	0.026682545288260633	40.323496524312304	-2
0.046987949816542529	0.027027814069164456	40.323810654169783	-2
0.050000000000000003	0.021230732233047035	40.286037437395684	-2
0.049658195560952599	0.021515600696872573	40.288259813412949	-2
0.046880449747468307	0.028119550252531694	40.328626267392572	-2
0.047000379026673242	0.027619929279204935	40.326148550595079	-2
0.048505153825653187	0.022089341229044285	40.293462074237247	-2
0.04920044817548945	0.021671478970065244	40.289671115089099	-2
0.048774656810565593	0.021721827297921489	40.290448606398527	-2
0.048053895882032058	0.022153095576071445	40.294686256936963	-2
0.047591599370294807	0.022208847214067098	40.296065133101806	-2
0.047153559774139354	0.022366795376777521	40.298316594839548	-2
0.046743253840547103	0.023038296339459217	40.30419889751326	-2
0.046325855328022046	0.023689623172901176	40.309879592284048	-2
0.046684148325521452	0.02255931127093521	40.301098785038342	-2
0.046143676439813971	0.024183176693394245	40.313582382739796	-2
0.046643401004349827	0.026250780334626918	40.321953716226346	-2
0.045784665567546741	0.02533365765002047	40.321409050306258	-2
0.045923666941824363	0.024661067942209493	40.317245088137369	-2
0.046013127182278513	0.025981348616221537	40.323472191067921	-2
0.046314001614633858	0.026851891458900962	40.325919502031184	-2
0.046337814732256247	0.027277772697417057	40.327532293362275	-2
0.050000000000000003	0.020607659009742332	40.28102976213804	-2
0.049638399006940892	0.020919195621394684	40.283635820981125	-2
0.049298252941132881	0.02125402541770394	40.286426858012241	-2
0.046402043125852069	0.028260693883447152	40.331038778952092	-2
0.046260899494936614	0.028739100505063387	40.33337402187901	-2
0.046489675080572668	0.027676370650874069	40.328462300982572	-2
0.048203886676864351	0.021585845839053673	40.290228228107125	-2
0.048598615184670568	0.021194877156423566	40.286627082240237	-2
0.047723664969482237	0.021762321752962253	40.292478508102839	-2
0.047243738020551714	0.021585045809526315	40.292234487988182	-2
0.046789408166529892	0.021873247254853238	40.295688133781766	-2
0.046036622042124338	0.02335312909454907	40.308851034938456	-2
0.045979864375236684	0.022913057821132263	40.30610461432795	-2
0.045842231319016061	0.023751998001844014	40.312247231129234	-2
0.046013582101836925	0.022472220644162606	40.302828657972647	-2
0.046361956030274508	0.022199989294625796	40.299559798691128	-2
0.045472435276852484	0.024069855971026521	40.315855630574049	-2
0.045860990818331525	0.02651180638476365	40.326492677511489	-2
0.045361354335171862	0.025086101871105864	40.322132818633101	-2
0.04548008364691021	0.025655349526931756	40.324415505158001	-2
0.04536960890201782	0.024595787558389072	40.31942294730365	-2
0.045473821832221588	0.02609831295626441	40.326504831536489	-2
0.045889278944452751	0.026945884514899536	40.328165808245075	-2
0.045945709624512214	0.027445687790163188	40.329871934399627	-2
0.050000000000000003	0.019984585786437629	40.275713216503803	-2
0.049498054123474952	0.020296122398089981	40.278499916642332	-2
0.049180680988372152	0.020794398442542605	40.282860629490017	-2
0.045917131213045942	0.028143839884914972	40.332553253091248	-2
0.045641349242404913	0.02935865075759508	40.337547454384065	-2
0.045726981143514228	0.028650548159008218	40.335029016205823	-2
0.045734208182485941	0.027786691080216804	40.332054670716445	-2
0.048154929165356228	0.021141670931919165	40.286846774861594	-2
0.048727373591654209	0.020654425143471926	40.282103854830133	-2
0.048358472857432708	0.020800912547385111	40.283756600162597	-2
0.047378769761023329	0.021213832248901544	40.288958266018419	-2
0.047724281516510404	0.021022378062875869	40.286662819901451	-2
0.046885243638146154	0.021343821857158617	40.291254755679866	-2
0.046460847623989956	0.021425032943720553	40.293153847169918	-2
0.04540388736960059	0.023538368922869448	40.312820926370549	-2
0.0454974427711623	0.023046620125220095	40.309061746548949	-2
0.045577668970926133	0.022398369144616473	40.304024833006991	-2
0.045904092450019751	0.021973084555681831	40.299450152586658	-2
0.044932389847036125	0.023576348192834422	40.315355249503263	-2
0.044957829845590304	0.024219383721169423	40.31928570959046	-2
0.0453049856558706	0.026620134121443852	40.329582000795227	-2
0.04507229932957843	0.02548223753835906	40.325618837924914	-2
0.044881622945313018	0.024866179026532782	40.323409692980185	-2
0.044768256998673324	0.025891075154847565	40.329154791524203	-2
0.044802912796197997	0.026399394848874994	40.331221332886855	-2
0.045496528193287908	0.027132889564567098	40.330711035399951	-2
0.049560375019360225	0.01983639907950608	40.274471831696985	-2
0.050000000000000003	0.019361512563132927	40.270078232433399	-2
0.049080104317371372	0.020005378568475153	40.276236274097506	-2
0.045266620042951469	0.028365981855546063	40.335996830118972	-2
0.04533157411613907	0.029668425883860927	40.339227511179445	-2
0.04539381453458053	0.028969486921057813	40.337259527254226	-2
0.045332973306923798	0.027781525962675521	40.333809868749952	-2
0.048101202858333261	0.020498656929111844	40.281611108135628	-2
0.048478619046781496	0.020317938355254122	40.279523669859046	-2
0.047078396314360012	0.020957299851208554	40.287552016277161	-2
0.047498327658989176	0.020462263959793992	40.282374955908672	-2
0.04649015579619644	0.020946861240981059	40.289080720438818	-2
0.046048004333137445	0.021221736729871057	40.292827826299472	-2
0.045062135908226483	0.022799481645351147	40.309306164245946	-2
0.045117042067585829	0.022338197472814618	40.3055775548155	-2
0.045420579904573828	0.021807735116386315	40.300037798688642	-2
0.045588484185321923	0.021197035168805615	40.294282525700886	-2
0.044672308329668967	0.02318124068460976	40.313974710177135	-2
0.044473015805247408	0.023689165870802921	40.31851264607058	-2
0.044250506238880875	0.024093411748284804	40.32236212353321	-2
0.04431977148658648	0.024549621746033649	40.324705852664692	-2
0.044956490633965632	0.027043636426728617	40.332992094534994	-2
0.044591388206312178	0.025442069093982514	40.327980257160831	-2
0.044454861904609427	0.024966740689312109	40.326277597996771	-2
0.044271468496613731	0.026004172987981532	40.332440169939368	-2
0.044364820853949063	0.026433564982903297	40.333752340056435	-2
0.044339175551891798	0.026872238513453463	40.335609350511781	-2
0.04931572555953441	0.019442221371459727	40.270993452054455	-2
0.050000000000000003	0.018738439339828224	40.264177558834788	-2
0.049616357934827986	0.019049975951480575	40.267219110737614	-2
0.048579635821542531	0.019911862262068571	40.275848712302377	-2
0.048824797196229577	0.019376908550869636	40.270734743137091	-2
0.044937105076287669	0.028638418880195578	40.338158920157653	-2
0.044902185554089577	0.027904268795649705	40.336232844802744	-2
0.044682736996617185	0.028294763637692174	40.338399642572661	-2
0.045176686553006148	0.029823313446993849	40.339971613099166	-2
0.044942793726000421	0.029065934593263263	40.339153899307618	-2
0.045050732806749545	0.029774803482303706	40.34018298934312	-2
0.044613436599353101	0.027371054164915941	40.335908559893092	-2
0.04782323389054955	0.020091686008257847	40.278500743499833	-2
0.048187427306338099	0.019687250542879096	40.274303964199191	-2
0.046767500895061737	0.020556237582718694	40.284896408719717	-2
0.047411517055605208	0.019909927187495138	40.277630693050163	-2
0.047008113055102441	0.020109457219019227	40.280328217096354	-2
0.046048377445386882	0.020761553294538233	40.288842069588583	-2
0.04639994822647555	0.020206363404245843	40.28278084400106	-2
0.045636258383552814	0.020786909936237958	40.29050025917585	-2
0.044528240948548556	0.022502022905184826	40.309718248594024	-2
0.044402149945709068	0.022883655585466418	40.313263847083149	-2
0.044831778785536562	0.021971560548756517	40.303994560509587	-2
0.044966023763975987	0.021314036439424547	40.297838589667123	-2
0.045059321917143909	0.020853908889796456	40.293366199438871	-2
0.044160326636887404	0.023369867966083573	40.318117092188906	-2
0.043774669768012614	0.023595687468026001	40.321970315363025	-2
0.043828008258245683	0.024278939894248976	40.326057692065483	-2
0.0439261751406941	0.024835023487550841	40.328681240443764	-2
0.04413986641538753	0.025271725075229172	40.329710946856238	-2
0.044041265964844728	0.025667487757863042	40.332251359813547	-2
0.04368001193303208	0.02585681729679425	40.335382578965856	-2
0.043869976624012479	0.026435996010586306	40.336665241974956	-2
0.043712232092682976	0.02700413640648508	40.339756139915174	-2
0.044140648436814041	0.027407929621612405	40.338598951772987	-2
0.04909624005143863	0.018962668042485257	40.266605669321805	-2
0.050000000000000003	0.018115366116523521	40.258015874596687	-2
0.049751003983111546	0.018426902728175872	40.261146445807576	-2
0.049361726097816527	0.01834020321925927	40.260400064242525	-2
0.048342857273710585	0.019262845701909174	40.270146557519979	-2
0.048730097445365002	0.018583082906300806	40.263197373037528	-2
0.044456915898579287	0.028780751042338095	40.340613834424957	-2
0.044462155070524728	0.027820500874748137	40.338144660093725	-2
0.044233970519108476	0.028291152938303511	40.340596266058327	-2
0.045099242771439688	0.02990075722856031	40.340271087166215	-2
0.044638322170656504	0.029378672762153422	40.340908000138356	-2
0.045029067534770928	0.029908025773458018	40.340401465577067	-2
0.044891166996418708	0.029945890456631302	40.340732318743861	-2
0.044735157843505617	0.029804267572692944	40.341054952241365	-2
0.047742923332946781	0.019605432687642942	40.274217034154873	-2
0.047238071261846572	0.019388556405894868	40.273109182496555	-2
0.046764435167456694	0.019450642683605777	40.274736773962772	-2
0.046329164123664668	0.019647429304657855	40.277727623774439	-2
0.045840140206086732	0.020269866925418548	40.285074232615585	-2
0.045956925930879793	0.019858298808950597	40.280833451300609	-2
0.045352360672022127	0.020487098045558285	40.2888210680022	-2
0.04440730447972429	0.022080745963499515	40.306995637435641	-2
0.044056979371823644	0.022481594319310225	40.312102334532256	-2
0.044005826803986001	0.022950516717604126	40.315992444423991	-2
0.044638121485379545	0.021589555766249137	40.30170482921033	-2
0.044622194692451184	0.021025203071670023	40.296818771234399	-2
0.044609527027015726	0.020576334856036032	40.292704207369816	-2
0.044935964703161108	0.020157296712357661	40.287294592925896	-2
0.043584605472110335	0.023163593893816673	40.320114793916339	-2
0.043299565223101341	0.024089605015684086	40.328301938501781	-2
0.043195225422993519	0.023550612230925316	40.325422094019679	-2
0.0433995663887842	0.024641620610756063	40.330964430016031	-2
0.043577363329302919	0.025173701148158797	40.332713333338724	-2
0.043228478687934516	0.025625694421505033	40.337268109695621	-2
0.043131999433108824	0.02612368218069051	40.340131326919341	-2
0.043314807649080064	0.026634626964591141	40.340953595765086	-2
0.043241988646123226	0.027172382307502976	40.343282877922768	-2
0.043583976554779476	0.027536360126297805	40.342234488682635	-2
0.04394759649559421	0.027945618125090867	40.341268640508751	-2
0.050000000000000003	0.017492292893218814	40.251619158214254	-2
0.049730738664505468	0.017803829504871166	40.254869515746968	-2
0.049321811327530912	0.017852153000885312	40.255481711463595	-2
0.048918125520705215	0.01812932438091815	40.258526861024876	-2
0.047703039088634769	0.019002232451822337	40.268531714261606	-2
0.048159607178690021	0.018797034601415286	40.265887423142715	-2
0.048429295316856032	0.018257619125669849	40.260229213957935	-2
0.044218148670803918	0.029260510499497603	40.342529111873453	-2
0.043942073700531832	0.028632035081852393	40.342877922063423	-2
0.04502179898987322	0.029978201010126774	40.340502922852053	-2
0.04403311665539672	0.029672932377958268	40.343759625126971	-2
0.044345134961222901	0.029999999999999999	40.342563153523471	-2
0.044984585786437624	0.029962786796564406	40.340539676195185	-2
0.044813162419962166	0.029999999999999999	40.3409327354128	-2
0.044969171572875249	0.029999999999999999	40.340574484587187	-2
0.044657153267049075	0.029999999999999999	40.341397418728604	-2
0.046866317010387251	0.018983945837816173	40.269910032944885	-2
0.04729414723807198	0.018559817073270962	40.264843371876935	-2
0.046068777045398281	0.019304708292405454	40.27507175755337	-2
0.045529722230835297	0.019835402986696071	40.281990585440916	-2
0.045659159844738832	0.019172523301989243	40.274966825082743	-2
0.045129250738039639	0.019805265159991405	40.283118018776406	-2
0.043973627013715044	0.022017312955032241	40.308781360057601	-2
0.043946261833279113	0.021586726934479154	40.305249217291305	-2
0.043579179142509542	0.022629982858943857	40.316111445572254	-2
0.044295202425912852	0.021332967920829497	40.301159957643357	-2
0.04420014568539922	0.020812501005823231	40.296847908581881	-2
0.044117644875813974	0.020196586918101337	40.291227838199632	-2
0.044586413773074755	0.019757335877349555	40.284761375393465	-2
0.04314021954301047	0.023004375680449385	40.321828913395123	-2
0.042867672078819058	0.024040110876889783	40.331010763338817	-2
0.042787664451496475	0.024467404847620985	40.334234906318144	-2
0.042609526707924311	0.023690336198934618	40.330583790770909	-2
0.042648096414666839	0.023171910309304964	40.326563546252622	-2
0.043006397507808339	0.025169646173680248	40.336584832892505	-2
0.042632556385897323	0.025768581242532465	40.342183563053688	-2
0.042800384758620101	0.026530504212333987	40.344086996561941	-2
0.042747070342179921	0.027105363991621455	40.346418464937315	-2
0.043000618507974604	0.027663977550007643	40.346288879385462	-2
0.043460701928979273	0.028069759542840449	40.344375699437151	-2
0.050000000000000003	0.016869219669914112	40.244995521212118	-2
0.049602986243516195	0.016997717288969927	40.246422916704418	-2
0.049418851545583058	0.017372184876295549	40.250448156473681	-2
0.048931404211314478	0.017693631730536903	40.25404307196667	-2
0.048531500166160264	0.017826385126781981	40.255723206495958	-2
0.047695325296786377	0.018599199785377048	40.264577344222957	-2
0.047991359710528744	0.018325597046562371	40.261404717849366	-2
0.048028852101950896	0.017824345055113676	40.256207700167046	-2
0.04365592191181273	0.029255986917820453	40.345346198662824	-2
0.043428627044488383	0.02857120606280536	40.345622522410579	-2
0.044999999999999998	0.029999999999999999	40.340538810023872	-2
0.043721098349570546	0.029999999999999999	40.345398310117723	-2
0.046891631635312403	0.01858163500951102	40.265809479557767	-2
0.046125825086579322	0.018878088269709822	40.270628146530171	-2
0.04697904982433946	0.018022968494043348	40.259861580194084	-2
0.047436052723671074	0.017966869276478198	40.25850246132029	-2
0.04509041228792119	0.01940554365702608	40.279225890827192	-2
0.045583361618288999	0.01877708420174292	40.271117983363489	-2
0.045183161114781802	0.018821322308948708	40.27282209714609	-2
0.043559697579446041	0.021867846889668377	40.309902245676511	-2
0.043545064172531997	0.0214280019798971	40.306043040472083	-2
0.043734568642346594	0.02073122647013453	40.298452208864106	-2
0.043028515221364687	0.022573006463662847	40.319203710701331	-2
0.043267431866056139	0.022196873384082289	40.314532131451735	-2
0.044048239661507962	0.019652756940406024	40.285969480921423	-2
0.043515461687845446	0.02004318563008662	40.292636219351714	-2
0.044480506910716693	0.019068682115360405	40.277957378304663	-2
0.04259057204257314	0.022655244099908871	40.322941886193981	-2
0.042343630042266496	0.024156724084004263	40.335712077857991	-2
0.042581125604757061	0.024852447733999139	40.33798234339357	-2
0.042184368473839398	0.024669417412388608	40.340070300422234	-2
0.042072867714761646	0.023693366962043733	40.334820279922333	-2
0.042014377810578839	0.023159896258465672	40.331391280822515	-2
0.042525927091812535	0.025285886822835828	40.340690872780016	-2
0.042327526239850782	0.026302738369868371	40.346698838795866	-2
0.042024426003448904	0.025957395352666814	40.347716444988997	-2
0.042081051091320786	0.025501407247273424	40.345226427712475	-2
0.042140405387416098	0.02669474622863368	40.349554518985336	-2
0.042225961401591919	0.02712061539068699	40.350274322065054	-2
0.04254180741893706	0.027535378487480111	40.34908656854715	-2
0.042750674145493384	0.027971744979302868	40.348712423193902	-2
0.043003155699437169	0.028277434429217752	40.34766565026014	-2
0.050000000000000003	0.016246146446609409	40.238174944129206	-2
0.049483614987240458	0.016347895306547386	40.239360811855313	-2
0.049230602177149564	0.016809404602045611	40.244504076383826	-2
0.04883198524524851	0.017284165518583243	40.249798223272514	-2
0.048211317884241489	0.017355980371732319	40.251067505653154	-2
0.047624750874700451	0.017387113065331996	40.252082580876042	-2
0.043282326463805254	0.029557261812763917	40.347635796066598	-2
0.043113502859479409	0.029107997178369521	40.348267811660556	-2
0.042930483741558681	0.028709701145413765	40.348879351590526	-2
0.043097061737918191	0.029999999999999999	40.348846073800928	-2
0.046607833385408581	0.018295359991114014	40.263459860447981	-2
0.046219252874726655	0.01846465517742877	40.266126698401592	-2
0.045796403827989281	0.018435425790427489	40.266889290535019	-2
0.046529675277817859	0.017855007834761117	40.258945168858574	-2
0.046877500124494709	0.01757387336974298	40.255245487361037	-2
0.047212278664788158	0.017325062294751125	40.251999713721503	-2
0.045106628945083514	0.018024778093018026	40.264390329662234	-2
0.044686445609238637	0.018500089317202283	40.271013019068697	-2
0.042702438675004686	0.021498463508857819	40.311963052190592	-2
0.04308970918053863	0.021056133117652462	40.305264606818433	-2
0.043286892833360138	0.020645097257577842	40.300047129532707	-2
0.042721850654973484	0.022114270162742318	40.317422301080889	-2
0.043687153342202155	0.019240222337708106	40.283158229188331	-2
0.043263835858481307	0.019344718834543185	40.286341834898224	-2
0.043024781124573357	0.019709369412591198	40.29162360177255	-2
0.042912111120753695	0.020385538903631959	40.299541027364889	-2
0.043776570779946844	0.018811495994545166	40.277988844283172	-2
0.044081713440174704	0.018497346806413538	40.27320705255871	-2
0.041939753203948181	0.022634266145800372	40.327772945884895	-2
0.042171685865091249	0.022156706633330553	40.321827202670768	-2
0.041692956447527171	0.024235683665883606	40.341601024708844	-2
0.041984165731935759	0.02506696597164515	40.343878231608365	-2
0.04161236990643695	0.024822233752731605	40.345757735770668	-2
0.041683196298335591	0.023824617626082411	40.339014236098897	-2
0.041440407029311468	0.023492768382544306	40.338830788723854	-2
0.041480496560423984	0.022900610251487367	40.33388932208608	-2
0.041646064420218877	0.026218113716370669	40.35186159798684	-2
0.041603999506295286	0.02575216447473256	40.350367836661526	-2
0.041355594007731936	0.02535571414865119	40.350748691089656	-2
0.041755481309489854	0.026896036638197254	40.353277326412346	-2
0.041762075480661486	0.027487326503488535	40.354834781944398	-2
0.042354201843766738	0.027973384745964835	40.351481581760353	-2
0.042271222428736946	0.028685214594564228	40.353298141240906	-2
0.050000000000000003	0.015623073223304706	40.231183635300354	-2
0.049528925276791529	0.015742678206479621	40.232588688683094	-2
0.049105682955539624	0.015981598034764156	40.235406196116543	-2
0.048810702076432573	0.016664616962782316	40.243130639959148	-2
0.048393456697571655	0.016816885964502259	40.245087972837339	-2
0.047863457286885389	0.016905657896127215	40.246564718118968	-2
0.047271803680238221	0.016912218020701839	40.247376262412104	-2
0.042729897347330299	0.029508499937707277	40.351003185756653	-2
0.042627285240990381	0.029026255084965796	40.351273697212619	-2
0.042473025126265843	0.029999999999999999	40.352817221073067	-2
0.046090018871640992	0.017773026398481606	40.259025565457364	-2
0.045560310082457749	0.017750413022933509	40.260066753229189	-2
0.046416917380184934	0.017409146021563866	40.25431257315568	-2
0.046745842945076971	0.017047096941528433	40.249684658934243	-2
0.044686754629775477	0.017549193868193577	40.260231861698763	-2
0.044400966626852063	0.017966975569225621	40.265977982348787	-2
0.045168354113809768	0.017393379012322636	40.25706078784809	-2
0.042294563253012174	0.021712685650363842	40.316821116943771	-2
0.042247333602533181	0.021287900958589918	40.313058007939418	-2
0.042511161797876271	0.020951646058860792	40.307878303718752	-2
0.043342466557844024	0.018753571217055749	40.279232622377116	-2
0.042882552794244418	0.019133199486017619	40.285838665932992	-2
0.042436636493708609	0.019788657339925266	40.295825761501334	-2
0.042514279266766521	0.020214629103715222	40.300107140475667	-2
0.043619118758657489	0.018402075913069492	40.273940993103416	-2
0.04378255705355634	0.01799500851584367	40.268512037262262	-2
0.041661369096845743	0.022203965240798821	40.326332299588223	-2
0.041859250271476807	0.021561834419398417	40.318661909986446	-2
0.04106701435460193	0.024041242829725345	40.346135598690523	-2
0.041218055805111994	0.024960977819654215	40.350093466975331	-2
0.04083451102919973	0.023481621147262311	40.344495754520743	-2
0.040870431543429571	0.022890434648393378	40.339469956402937	-2
0.04118274074067254	0.022387190448123869	40.33215510725703	-2
0.041051523215802133	0.026030292100122015	40.356379484069116	-2
0.041150871059229065	0.026645829433909324	40.357617506577	-2
0.041046866334936649	0.025622372970226931	40.354815981456369	-2
0.041269939933158251	0.027202062695040025	40.358174429902398	-2
0.041759591474445849	0.02808476549564079	40.356148577873405	-2
0.041242824979440332	0.027770250706891503	40.359676328468467	-2
0.042108678618143859	0.028305515079027756	40.353887595436021	-2
0.042001078805768477	0.02932365130638016	40.355909477910963	-2
0.041577433139444057	0.029094720725234256	40.358894003748837	-2
0.041348421586140945	0.028671118824821904	40.360231696373916	-2
0.050000000000000003	0.015000000000000001	40.224033448250857	-2
0.049475718952996926	0.015077565727360251	40.224980763370212	-2
0.049096422491307072	0.015520961974790555	40.230181719764147	-2
0.048669450804361143	0.015735467236917659	40.232827602241166	-2
0.048575982511377874	0.016287541001143137	40.239102747909534	-2
0.048064784143605661	0.016407413650866572	40.240849407575624	-2
0.047540281877442872	0.01638311146670992	40.241113107882668	-2
0.046844041954252236	0.016503418642920351	40.243403205545206	-2
0.042317374312452881	0.029605777883435148	40.353816336761646	-2